* NGSPICE file created from sky130_leo_ip__rdac_8bit.ext - technology: sky130A

.subckt sky130_leo_ip__rdac_8bit D0 OUT D1 D2 D3 D4 D5 D6 D7 VGND
X0 a_6632_10921# a_6994_493# VGND.t30 sky130_fd_pr__res_high_po_1p41 l=50.12
X1 a_2288_10921# a_1202_10921# VGND.t20 sky130_fd_pr__res_high_po_1p41 l=50.12
X2 a_3374_10921# a_2288_10921# VGND.t28 sky130_fd_pr__res_high_po_1p41 l=50.12
X3 a_4460_10921# a_3374_10921# VGND.t29 sky130_fd_pr__res_high_po_1p41 l=50.12
X4 a_5546_10921# a_4460_10921# VGND.t22 sky130_fd_pr__res_high_po_1p41 l=50.12
X5 a_6632_10921# a_5546_10921# VGND.t13 sky130_fd_pr__res_high_po_1p41 l=50.12
X6 D1.t0 a_2650_493# VGND.t19 sky130_fd_pr__res_high_po_1p41 l=50.12
X7 a_7718_10921# a_6632_10921# VGND.t4 sky130_fd_pr__res_high_po_1p41 l=50.12
X8 OUT.t0 a_7718_10921# VGND.t0 sky130_fd_pr__res_high_po_1p41 l=50.12
X9 a_1202_10921# a_1564_493# VGND.t12 sky130_fd_pr__res_high_po_1p41 l=50.12
X10 a_2288_10921# a_2650_493# VGND.t11 sky130_fd_pr__res_high_po_1p41 l=50.12
X11 a_3374_10921# a_3736_493# VGND.t7 sky130_fd_pr__res_high_po_1p41 l=50.12
X12 a_4460_10921# a_4822_493# VGND.t27 sky130_fd_pr__res_high_po_1p41 l=50.12
X13 a_1202_10921# a_840_493# VGND.t31 sky130_fd_pr__res_high_po_1p41 l=50.12
X14 a_5546_10921# a_5908_493# VGND.t1 sky130_fd_pr__res_high_po_1p41 l=50.12
X15 VGND.t18 a_1564_493# VGND.t17 sky130_fd_pr__res_high_po_1p41 l=50.12
X16 a_7718_10921# a_8080_493# VGND.t2 sky130_fd_pr__res_high_po_1p41 l=50.12
X17 OUT.t1 a_9166_493# VGND.t6 sky130_fd_pr__res_high_po_1p41 l=50.12
X18 VGND.t24 VGND.t25 VGND.t23 sky130_fd_pr__res_high_po_1p41 l=50.12
X19 VGND.t9 VGND.t10 VGND.t8 sky130_fd_pr__res_high_po_1p41 l=50.12
X20 D2.t0 a_3736_493# VGND.t16 sky130_fd_pr__res_high_po_1p41 l=50.12
X21 D3.t0 a_4822_493# VGND.t15 sky130_fd_pr__res_high_po_1p41 l=50.12
X22 D4.t0 a_5908_493# VGND.t26 sky130_fd_pr__res_high_po_1p41 l=50.12
X23 D5.t0 a_6994_493# VGND.t3 sky130_fd_pr__res_high_po_1p41 l=50.12
X24 D6.t0 a_8080_493# VGND.t14 sky130_fd_pr__res_high_po_1p41 l=50.12
X25 D0.t0 a_840_493# VGND.t5 sky130_fd_pr__res_high_po_1p41 l=50.12
X26 D7.t0 a_9166_493# VGND.t21 sky130_fd_pr__res_high_po_1p41 l=50.12
R0 VGND.n1098 VGND.n626 585
R1 VGND.n1098 VGND.n632 585
R2 VGND.n1099 VGND.n1098 585
R3 VGND.n633 VGND.n632 585
R4 VGND.n1099 VGND.n633 585
R5 VGND.n860 VGND.n632 585
R6 VGND.n1099 VGND.n860 585
R7 VGND.n634 VGND.n632 585
R8 VGND.n1099 VGND.n634 585
R9 VGND.n858 VGND.n632 585
R10 VGND.n1099 VGND.n858 585
R11 VGND.n635 VGND.n632 585
R12 VGND.n1099 VGND.n635 585
R13 VGND.n856 VGND.n632 585
R14 VGND.n1099 VGND.n856 585
R15 VGND.n636 VGND.n632 585
R16 VGND.n1099 VGND.n636 585
R17 VGND.n854 VGND.n632 585
R18 VGND.n1099 VGND.n854 585
R19 VGND.n637 VGND.n632 585
R20 VGND.n1099 VGND.n637 585
R21 VGND.n852 VGND.n632 585
R22 VGND.n1099 VGND.n852 585
R23 VGND.n638 VGND.n632 585
R24 VGND.n1099 VGND.n638 585
R25 VGND.n850 VGND.n632 585
R26 VGND.n1099 VGND.n850 585
R27 VGND.n639 VGND.n632 585
R28 VGND.n1099 VGND.n639 585
R29 VGND.n848 VGND.n632 585
R30 VGND.n1099 VGND.n848 585
R31 VGND.n640 VGND.n632 585
R32 VGND.n1099 VGND.n640 585
R33 VGND.n846 VGND.n632 585
R34 VGND.n1099 VGND.n846 585
R35 VGND.n641 VGND.n632 585
R36 VGND.n1099 VGND.n641 585
R37 VGND.n844 VGND.n632 585
R38 VGND.n1099 VGND.n844 585
R39 VGND.n642 VGND.n632 585
R40 VGND.n1099 VGND.n642 585
R41 VGND.n842 VGND.n632 585
R42 VGND.n1099 VGND.n842 585
R43 VGND.n643 VGND.n632 585
R44 VGND.n1099 VGND.n643 585
R45 VGND.n840 VGND.n632 585
R46 VGND.n1099 VGND.n840 585
R47 VGND.n644 VGND.n632 585
R48 VGND.n1099 VGND.n644 585
R49 VGND.n838 VGND.n632 585
R50 VGND.n1099 VGND.n838 585
R51 VGND.n645 VGND.n632 585
R52 VGND.n1099 VGND.n645 585
R53 VGND.n836 VGND.n632 585
R54 VGND.n1099 VGND.n836 585
R55 VGND.n646 VGND.n632 585
R56 VGND.n1099 VGND.n646 585
R57 VGND.n834 VGND.n632 585
R58 VGND.n1099 VGND.n834 585
R59 VGND.n647 VGND.n632 585
R60 VGND.n1099 VGND.n647 585
R61 VGND.n832 VGND.n632 585
R62 VGND.n1099 VGND.n832 585
R63 VGND.n648 VGND.n632 585
R64 VGND.n1099 VGND.n648 585
R65 VGND.n830 VGND.n632 585
R66 VGND.n1099 VGND.n830 585
R67 VGND.n649 VGND.n632 585
R68 VGND.n1099 VGND.n649 585
R69 VGND.n828 VGND.n632 585
R70 VGND.n1099 VGND.n828 585
R71 VGND.n650 VGND.n632 585
R72 VGND.n1099 VGND.n650 585
R73 VGND.n826 VGND.n632 585
R74 VGND.n1099 VGND.n826 585
R75 VGND.n651 VGND.n632 585
R76 VGND.n1099 VGND.n651 585
R77 VGND.n824 VGND.n632 585
R78 VGND.n1099 VGND.n824 585
R79 VGND.n652 VGND.n632 585
R80 VGND.n1099 VGND.n652 585
R81 VGND.n822 VGND.n632 585
R82 VGND.n1099 VGND.n822 585
R83 VGND.n653 VGND.n632 585
R84 VGND.n1099 VGND.n653 585
R85 VGND.n820 VGND.n632 585
R86 VGND.n1099 VGND.n820 585
R87 VGND.n654 VGND.n632 585
R88 VGND.n1099 VGND.n654 585
R89 VGND.n818 VGND.n632 585
R90 VGND.n1099 VGND.n818 585
R91 VGND.n655 VGND.n632 585
R92 VGND.n1099 VGND.n655 585
R93 VGND.n816 VGND.n632 585
R94 VGND.n1099 VGND.n816 585
R95 VGND.n656 VGND.n632 585
R96 VGND.n1099 VGND.n656 585
R97 VGND.n814 VGND.n632 585
R98 VGND.n1099 VGND.n814 585
R99 VGND.n657 VGND.n632 585
R100 VGND.n1099 VGND.n657 585
R101 VGND.n812 VGND.n632 585
R102 VGND.n1099 VGND.n812 585
R103 VGND.n658 VGND.n632 585
R104 VGND.n1099 VGND.n658 585
R105 VGND.n810 VGND.n632 585
R106 VGND.n1099 VGND.n810 585
R107 VGND.n659 VGND.n632 585
R108 VGND.n1099 VGND.n659 585
R109 VGND.n808 VGND.n632 585
R110 VGND.n1099 VGND.n808 585
R111 VGND.n660 VGND.n632 585
R112 VGND.n1099 VGND.n660 585
R113 VGND.n806 VGND.n632 585
R114 VGND.n1099 VGND.n806 585
R115 VGND.n661 VGND.n632 585
R116 VGND.n1099 VGND.n661 585
R117 VGND.n804 VGND.n632 585
R118 VGND.n1099 VGND.n804 585
R119 VGND.n662 VGND.n632 585
R120 VGND.n1099 VGND.n662 585
R121 VGND.n802 VGND.n632 585
R122 VGND.n1099 VGND.n802 585
R123 VGND.n663 VGND.n632 585
R124 VGND.n1099 VGND.n663 585
R125 VGND.n800 VGND.n632 585
R126 VGND.n1099 VGND.n800 585
R127 VGND.n664 VGND.n632 585
R128 VGND.n1099 VGND.n664 585
R129 VGND.n798 VGND.n632 585
R130 VGND.n1099 VGND.n798 585
R131 VGND.n665 VGND.n632 585
R132 VGND.n1099 VGND.n665 585
R133 VGND.n796 VGND.n632 585
R134 VGND.n1099 VGND.n796 585
R135 VGND.n666 VGND.n632 585
R136 VGND.n1099 VGND.n666 585
R137 VGND.n794 VGND.n632 585
R138 VGND.n1099 VGND.n794 585
R139 VGND.n667 VGND.n632 585
R140 VGND.n1099 VGND.n667 585
R141 VGND.n792 VGND.n632 585
R142 VGND.n1099 VGND.n792 585
R143 VGND.n668 VGND.n632 585
R144 VGND.n1099 VGND.n668 585
R145 VGND.n790 VGND.n632 585
R146 VGND.n1099 VGND.n790 585
R147 VGND.n669 VGND.n632 585
R148 VGND.n1099 VGND.n669 585
R149 VGND.n788 VGND.n632 585
R150 VGND.n1099 VGND.n788 585
R151 VGND.n670 VGND.n632 585
R152 VGND.n1099 VGND.n670 585
R153 VGND.n786 VGND.n632 585
R154 VGND.n1099 VGND.n786 585
R155 VGND.n671 VGND.n632 585
R156 VGND.n1099 VGND.n671 585
R157 VGND.n784 VGND.n632 585
R158 VGND.n1099 VGND.n784 585
R159 VGND.n672 VGND.n632 585
R160 VGND.n1099 VGND.n672 585
R161 VGND.n782 VGND.n632 585
R162 VGND.n1099 VGND.n782 585
R163 VGND.n673 VGND.n632 585
R164 VGND.n1099 VGND.n673 585
R165 VGND.n780 VGND.n632 585
R166 VGND.n1099 VGND.n780 585
R167 VGND.n674 VGND.n632 585
R168 VGND.n1099 VGND.n674 585
R169 VGND.n778 VGND.n632 585
R170 VGND.n1099 VGND.n778 585
R171 VGND.n675 VGND.n632 585
R172 VGND.n1099 VGND.n675 585
R173 VGND.n776 VGND.n632 585
R174 VGND.n1099 VGND.n776 585
R175 VGND.n676 VGND.n632 585
R176 VGND.n1099 VGND.n676 585
R177 VGND.n774 VGND.n632 585
R178 VGND.n1099 VGND.n774 585
R179 VGND.n677 VGND.n632 585
R180 VGND.n1099 VGND.n677 585
R181 VGND.n772 VGND.n632 585
R182 VGND.n1099 VGND.n772 585
R183 VGND.n678 VGND.n632 585
R184 VGND.n1099 VGND.n678 585
R185 VGND.n770 VGND.n632 585
R186 VGND.n1099 VGND.n770 585
R187 VGND.n679 VGND.n632 585
R188 VGND.n1099 VGND.n679 585
R189 VGND.n768 VGND.n632 585
R190 VGND.n1099 VGND.n768 585
R191 VGND.n680 VGND.n632 585
R192 VGND.n1099 VGND.n680 585
R193 VGND.n766 VGND.n632 585
R194 VGND.n1099 VGND.n766 585
R195 VGND.n681 VGND.n632 585
R196 VGND.n1099 VGND.n681 585
R197 VGND.n764 VGND.n632 585
R198 VGND.n1099 VGND.n764 585
R199 VGND.n682 VGND.n632 585
R200 VGND.n1099 VGND.n682 585
R201 VGND.n762 VGND.n632 585
R202 VGND.n1099 VGND.n762 585
R203 VGND.n683 VGND.n632 585
R204 VGND.n1099 VGND.n683 585
R205 VGND.n760 VGND.n632 585
R206 VGND.n1099 VGND.n760 585
R207 VGND.n684 VGND.n632 585
R208 VGND.n1099 VGND.n684 585
R209 VGND.n758 VGND.n632 585
R210 VGND.n1099 VGND.n758 585
R211 VGND.n685 VGND.n632 585
R212 VGND.n1099 VGND.n685 585
R213 VGND.n756 VGND.n632 585
R214 VGND.n1099 VGND.n756 585
R215 VGND.n686 VGND.n632 585
R216 VGND.n1099 VGND.n686 585
R217 VGND.n754 VGND.n632 585
R218 VGND.n1099 VGND.n754 585
R219 VGND.n687 VGND.n632 585
R220 VGND.n1099 VGND.n687 585
R221 VGND.n752 VGND.n632 585
R222 VGND.n1099 VGND.n752 585
R223 VGND.n688 VGND.n632 585
R224 VGND.n1099 VGND.n688 585
R225 VGND.n750 VGND.n632 585
R226 VGND.n1099 VGND.n750 585
R227 VGND.n689 VGND.n632 585
R228 VGND.n1099 VGND.n689 585
R229 VGND.n748 VGND.n632 585
R230 VGND.n1099 VGND.n748 585
R231 VGND.n690 VGND.n632 585
R232 VGND.n1099 VGND.n690 585
R233 VGND.n746 VGND.n632 585
R234 VGND.n1099 VGND.n746 585
R235 VGND.n691 VGND.n632 585
R236 VGND.n1099 VGND.n691 585
R237 VGND.n744 VGND.n632 585
R238 VGND.n1099 VGND.n744 585
R239 VGND.n692 VGND.n632 585
R240 VGND.n1099 VGND.n692 585
R241 VGND.n742 VGND.n632 585
R242 VGND.n1099 VGND.n742 585
R243 VGND.n693 VGND.n632 585
R244 VGND.n1099 VGND.n693 585
R245 VGND.n740 VGND.n632 585
R246 VGND.n1099 VGND.n740 585
R247 VGND.n694 VGND.n632 585
R248 VGND.n1099 VGND.n694 585
R249 VGND.n738 VGND.n632 585
R250 VGND.n1099 VGND.n738 585
R251 VGND.n695 VGND.n632 585
R252 VGND.n1099 VGND.n695 585
R253 VGND.n736 VGND.n632 585
R254 VGND.n1099 VGND.n736 585
R255 VGND.n696 VGND.n632 585
R256 VGND.n1099 VGND.n696 585
R257 VGND.n734 VGND.n632 585
R258 VGND.n1099 VGND.n734 585
R259 VGND.n697 VGND.n632 585
R260 VGND.n1099 VGND.n697 585
R261 VGND.n732 VGND.n632 585
R262 VGND.n1099 VGND.n732 585
R263 VGND.n698 VGND.n632 585
R264 VGND.n1099 VGND.n698 585
R265 VGND.n730 VGND.n632 585
R266 VGND.n1099 VGND.n730 585
R267 VGND.n699 VGND.n632 585
R268 VGND.n1099 VGND.n699 585
R269 VGND.n728 VGND.n632 585
R270 VGND.n1099 VGND.n728 585
R271 VGND.n700 VGND.n632 585
R272 VGND.n1099 VGND.n700 585
R273 VGND.n726 VGND.n632 585
R274 VGND.n1099 VGND.n726 585
R275 VGND.n701 VGND.n632 585
R276 VGND.n1099 VGND.n701 585
R277 VGND.n724 VGND.n632 585
R278 VGND.n1099 VGND.n724 585
R279 VGND.n702 VGND.n632 585
R280 VGND.n1099 VGND.n702 585
R281 VGND.n722 VGND.n632 585
R282 VGND.n1099 VGND.n722 585
R283 VGND.n703 VGND.n632 585
R284 VGND.n1099 VGND.n703 585
R285 VGND.n720 VGND.n632 585
R286 VGND.n1099 VGND.n720 585
R287 VGND.n704 VGND.n632 585
R288 VGND.n1099 VGND.n704 585
R289 VGND.n718 VGND.n632 585
R290 VGND.n1099 VGND.n718 585
R291 VGND.n705 VGND.n632 585
R292 VGND.n1099 VGND.n705 585
R293 VGND.n716 VGND.n632 585
R294 VGND.n1099 VGND.n716 585
R295 VGND.n706 VGND.n632 585
R296 VGND.n1099 VGND.n706 585
R297 VGND.n714 VGND.n632 585
R298 VGND.n1099 VGND.n714 585
R299 VGND.n707 VGND.n632 585
R300 VGND.n1099 VGND.n707 585
R301 VGND.n712 VGND.n632 585
R302 VGND.n1099 VGND.n712 585
R303 VGND.n708 VGND.n632 585
R304 VGND.n1099 VGND.n708 585
R305 VGND.n710 VGND.n632 585
R306 VGND.n1099 VGND.n710 585
R307 VGND.n1100 VGND.n626 585
R308 VGND.n1100 VGND.n632 585
R309 VGND.n1100 VGND.n1099 585
R310 VGND.n180 VGND.n103 585
R311 VGND.n1561 VGND.n180 585
R312 VGND.n180 VGND.n97 585
R313 VGND.n1561 VGND.n184 585
R314 VGND.n184 VGND.n97 585
R315 VGND.n1561 VGND.n179 585
R316 VGND.n179 VGND.n97 585
R317 VGND.n1561 VGND.n187 585
R318 VGND.n187 VGND.n97 585
R319 VGND.n1561 VGND.n178 585
R320 VGND.n178 VGND.n97 585
R321 VGND.n1561 VGND.n190 585
R322 VGND.n190 VGND.n97 585
R323 VGND.n1561 VGND.n177 585
R324 VGND.n177 VGND.n97 585
R325 VGND.n1561 VGND.n193 585
R326 VGND.n193 VGND.n97 585
R327 VGND.n1561 VGND.n176 585
R328 VGND.n176 VGND.n97 585
R329 VGND.n1561 VGND.n196 585
R330 VGND.n196 VGND.n97 585
R331 VGND.n1561 VGND.n175 585
R332 VGND.n175 VGND.n97 585
R333 VGND.n1561 VGND.n199 585
R334 VGND.n199 VGND.n97 585
R335 VGND.n1561 VGND.n174 585
R336 VGND.n174 VGND.n97 585
R337 VGND.n1561 VGND.n202 585
R338 VGND.n202 VGND.n97 585
R339 VGND.n1561 VGND.n173 585
R340 VGND.n173 VGND.n97 585
R341 VGND.n1561 VGND.n205 585
R342 VGND.n205 VGND.n97 585
R343 VGND.n1561 VGND.n172 585
R344 VGND.n172 VGND.n97 585
R345 VGND.n1561 VGND.n208 585
R346 VGND.n208 VGND.n97 585
R347 VGND.n1561 VGND.n171 585
R348 VGND.n171 VGND.n97 585
R349 VGND.n1561 VGND.n211 585
R350 VGND.n211 VGND.n97 585
R351 VGND.n1561 VGND.n170 585
R352 VGND.n170 VGND.n97 585
R353 VGND.n1561 VGND.n214 585
R354 VGND.n214 VGND.n97 585
R355 VGND.n1561 VGND.n169 585
R356 VGND.n169 VGND.n97 585
R357 VGND.n1561 VGND.n217 585
R358 VGND.n217 VGND.n97 585
R359 VGND.n1561 VGND.n168 585
R360 VGND.n168 VGND.n97 585
R361 VGND.n1561 VGND.n220 585
R362 VGND.n220 VGND.n97 585
R363 VGND.n1561 VGND.n167 585
R364 VGND.n167 VGND.n97 585
R365 VGND.n1561 VGND.n223 585
R366 VGND.n223 VGND.n97 585
R367 VGND.n1561 VGND.n166 585
R368 VGND.n166 VGND.n97 585
R369 VGND.n1561 VGND.n226 585
R370 VGND.n226 VGND.n97 585
R371 VGND.n1561 VGND.n165 585
R372 VGND.n165 VGND.n97 585
R373 VGND.n1561 VGND.n229 585
R374 VGND.n229 VGND.n97 585
R375 VGND.n1561 VGND.n164 585
R376 VGND.n164 VGND.n97 585
R377 VGND.n1561 VGND.n232 585
R378 VGND.n232 VGND.n97 585
R379 VGND.n1561 VGND.n163 585
R380 VGND.n163 VGND.n97 585
R381 VGND.n1561 VGND.n235 585
R382 VGND.n235 VGND.n97 585
R383 VGND.n1561 VGND.n162 585
R384 VGND.n162 VGND.n97 585
R385 VGND.n1561 VGND.n238 585
R386 VGND.n238 VGND.n97 585
R387 VGND.n1561 VGND.n161 585
R388 VGND.n161 VGND.n97 585
R389 VGND.n1561 VGND.n241 585
R390 VGND.n241 VGND.n97 585
R391 VGND.n1561 VGND.n160 585
R392 VGND.n160 VGND.n97 585
R393 VGND.n1561 VGND.n244 585
R394 VGND.n244 VGND.n97 585
R395 VGND.n1561 VGND.n159 585
R396 VGND.n159 VGND.n97 585
R397 VGND.n1561 VGND.n247 585
R398 VGND.n247 VGND.n97 585
R399 VGND.n1561 VGND.n158 585
R400 VGND.n158 VGND.n97 585
R401 VGND.n1561 VGND.n250 585
R402 VGND.n250 VGND.n97 585
R403 VGND.n1561 VGND.n157 585
R404 VGND.n157 VGND.n97 585
R405 VGND.n1561 VGND.n253 585
R406 VGND.n253 VGND.n97 585
R407 VGND.n1561 VGND.n156 585
R408 VGND.n156 VGND.n97 585
R409 VGND.n1561 VGND.n256 585
R410 VGND.n256 VGND.n97 585
R411 VGND.n1561 VGND.n155 585
R412 VGND.n155 VGND.n97 585
R413 VGND.n1561 VGND.n259 585
R414 VGND.n259 VGND.n97 585
R415 VGND.n1561 VGND.n154 585
R416 VGND.n154 VGND.n97 585
R417 VGND.n1561 VGND.n262 585
R418 VGND.n262 VGND.n97 585
R419 VGND.n1561 VGND.n153 585
R420 VGND.n153 VGND.n97 585
R421 VGND.n1561 VGND.n265 585
R422 VGND.n265 VGND.n97 585
R423 VGND.n1561 VGND.n152 585
R424 VGND.n152 VGND.n97 585
R425 VGND.n1561 VGND.n268 585
R426 VGND.n268 VGND.n97 585
R427 VGND.n1561 VGND.n151 585
R428 VGND.n151 VGND.n97 585
R429 VGND.n1561 VGND.n271 585
R430 VGND.n271 VGND.n97 585
R431 VGND.n1561 VGND.n150 585
R432 VGND.n150 VGND.n97 585
R433 VGND.n1561 VGND.n274 585
R434 VGND.n274 VGND.n97 585
R435 VGND.n1561 VGND.n149 585
R436 VGND.n149 VGND.n97 585
R437 VGND.n1561 VGND.n277 585
R438 VGND.n277 VGND.n97 585
R439 VGND.n1561 VGND.n148 585
R440 VGND.n148 VGND.n97 585
R441 VGND.n1561 VGND.n280 585
R442 VGND.n280 VGND.n97 585
R443 VGND.n1561 VGND.n147 585
R444 VGND.n147 VGND.n97 585
R445 VGND.n1561 VGND.n283 585
R446 VGND.n283 VGND.n97 585
R447 VGND.n1561 VGND.n146 585
R448 VGND.n146 VGND.n97 585
R449 VGND.n1561 VGND.n286 585
R450 VGND.n286 VGND.n97 585
R451 VGND.n1561 VGND.n145 585
R452 VGND.n145 VGND.n97 585
R453 VGND.n1561 VGND.n289 585
R454 VGND.n289 VGND.n97 585
R455 VGND.n1561 VGND.n144 585
R456 VGND.n144 VGND.n97 585
R457 VGND.n1561 VGND.n292 585
R458 VGND.n292 VGND.n97 585
R459 VGND.n1561 VGND.n143 585
R460 VGND.n143 VGND.n97 585
R461 VGND.n1561 VGND.n295 585
R462 VGND.n295 VGND.n97 585
R463 VGND.n1561 VGND.n142 585
R464 VGND.n142 VGND.n97 585
R465 VGND.n1561 VGND.n298 585
R466 VGND.n298 VGND.n97 585
R467 VGND.n1561 VGND.n141 585
R468 VGND.n141 VGND.n97 585
R469 VGND.n1561 VGND.n301 585
R470 VGND.n301 VGND.n97 585
R471 VGND.n1561 VGND.n140 585
R472 VGND.n140 VGND.n97 585
R473 VGND.n1561 VGND.n304 585
R474 VGND.n304 VGND.n97 585
R475 VGND.n1561 VGND.n139 585
R476 VGND.n139 VGND.n97 585
R477 VGND.n1561 VGND.n307 585
R478 VGND.n307 VGND.n97 585
R479 VGND.n1561 VGND.n138 585
R480 VGND.n138 VGND.n97 585
R481 VGND.n1561 VGND.n310 585
R482 VGND.n310 VGND.n97 585
R483 VGND.n1561 VGND.n137 585
R484 VGND.n137 VGND.n97 585
R485 VGND.n1561 VGND.n313 585
R486 VGND.n313 VGND.n97 585
R487 VGND.n1561 VGND.n136 585
R488 VGND.n136 VGND.n97 585
R489 VGND.n1561 VGND.n316 585
R490 VGND.n316 VGND.n97 585
R491 VGND.n1561 VGND.n135 585
R492 VGND.n135 VGND.n97 585
R493 VGND.n1561 VGND.n319 585
R494 VGND.n319 VGND.n97 585
R495 VGND.n1561 VGND.n134 585
R496 VGND.n134 VGND.n97 585
R497 VGND.n1561 VGND.n322 585
R498 VGND.n322 VGND.n97 585
R499 VGND.n1561 VGND.n133 585
R500 VGND.n133 VGND.n97 585
R501 VGND.n1561 VGND.n325 585
R502 VGND.n325 VGND.n97 585
R503 VGND.n1561 VGND.n132 585
R504 VGND.n132 VGND.n97 585
R505 VGND.n1561 VGND.n328 585
R506 VGND.n328 VGND.n97 585
R507 VGND.n1561 VGND.n131 585
R508 VGND.n131 VGND.n97 585
R509 VGND.n1561 VGND.n331 585
R510 VGND.n331 VGND.n97 585
R511 VGND.n1561 VGND.n130 585
R512 VGND.n130 VGND.n97 585
R513 VGND.n1561 VGND.n334 585
R514 VGND.n334 VGND.n97 585
R515 VGND.n1561 VGND.n129 585
R516 VGND.n129 VGND.n97 585
R517 VGND.n1561 VGND.n337 585
R518 VGND.n337 VGND.n97 585
R519 VGND.n1561 VGND.n128 585
R520 VGND.n128 VGND.n97 585
R521 VGND.n1561 VGND.n340 585
R522 VGND.n340 VGND.n97 585
R523 VGND.n1561 VGND.n127 585
R524 VGND.n127 VGND.n97 585
R525 VGND.n1561 VGND.n343 585
R526 VGND.n343 VGND.n97 585
R527 VGND.n1561 VGND.n126 585
R528 VGND.n126 VGND.n97 585
R529 VGND.n1561 VGND.n346 585
R530 VGND.n346 VGND.n97 585
R531 VGND.n1561 VGND.n125 585
R532 VGND.n125 VGND.n97 585
R533 VGND.n1561 VGND.n349 585
R534 VGND.n349 VGND.n97 585
R535 VGND.n1561 VGND.n124 585
R536 VGND.n124 VGND.n97 585
R537 VGND.n1561 VGND.n352 585
R538 VGND.n352 VGND.n97 585
R539 VGND.n1561 VGND.n123 585
R540 VGND.n123 VGND.n97 585
R541 VGND.n1561 VGND.n355 585
R542 VGND.n355 VGND.n97 585
R543 VGND.n1561 VGND.n122 585
R544 VGND.n122 VGND.n97 585
R545 VGND.n1561 VGND.n358 585
R546 VGND.n358 VGND.n97 585
R547 VGND.n1561 VGND.n121 585
R548 VGND.n121 VGND.n97 585
R549 VGND.n1561 VGND.n361 585
R550 VGND.n361 VGND.n97 585
R551 VGND.n1561 VGND.n120 585
R552 VGND.n120 VGND.n97 585
R553 VGND.n1561 VGND.n364 585
R554 VGND.n364 VGND.n97 585
R555 VGND.n1561 VGND.n119 585
R556 VGND.n119 VGND.n97 585
R557 VGND.n1561 VGND.n367 585
R558 VGND.n367 VGND.n97 585
R559 VGND.n1561 VGND.n118 585
R560 VGND.n118 VGND.n97 585
R561 VGND.n1561 VGND.n370 585
R562 VGND.n370 VGND.n97 585
R563 VGND.n1561 VGND.n117 585
R564 VGND.n117 VGND.n97 585
R565 VGND.n1561 VGND.n373 585
R566 VGND.n373 VGND.n97 585
R567 VGND.n1561 VGND.n116 585
R568 VGND.n116 VGND.n97 585
R569 VGND.n1561 VGND.n376 585
R570 VGND.n376 VGND.n97 585
R571 VGND.n1561 VGND.n115 585
R572 VGND.n115 VGND.n97 585
R573 VGND.n1561 VGND.n379 585
R574 VGND.n379 VGND.n97 585
R575 VGND.n1561 VGND.n114 585
R576 VGND.n114 VGND.n97 585
R577 VGND.n1561 VGND.n382 585
R578 VGND.n382 VGND.n97 585
R579 VGND.n1561 VGND.n113 585
R580 VGND.n113 VGND.n97 585
R581 VGND.n1561 VGND.n385 585
R582 VGND.n385 VGND.n97 585
R583 VGND.n1561 VGND.n112 585
R584 VGND.n112 VGND.n97 585
R585 VGND.n1561 VGND.n388 585
R586 VGND.n388 VGND.n97 585
R587 VGND.n1561 VGND.n111 585
R588 VGND.n111 VGND.n97 585
R589 VGND.n1561 VGND.n391 585
R590 VGND.n391 VGND.n97 585
R591 VGND.n1561 VGND.n110 585
R592 VGND.n110 VGND.n97 585
R593 VGND.n1561 VGND.n394 585
R594 VGND.n394 VGND.n97 585
R595 VGND.n1561 VGND.n109 585
R596 VGND.n109 VGND.n97 585
R597 VGND.n1561 VGND.n397 585
R598 VGND.n397 VGND.n97 585
R599 VGND.n1561 VGND.n108 585
R600 VGND.n108 VGND.n97 585
R601 VGND.n1561 VGND.n400 585
R602 VGND.n400 VGND.n97 585
R603 VGND.n1561 VGND.n107 585
R604 VGND.n107 VGND.n97 585
R605 VGND.n1561 VGND.n403 585
R606 VGND.n403 VGND.n97 585
R607 VGND.n1561 VGND.n106 585
R608 VGND.n106 VGND.n97 585
R609 VGND.n1561 VGND.n406 585
R610 VGND.n406 VGND.n97 585
R611 VGND.n1561 VGND.n105 585
R612 VGND.n105 VGND.n97 585
R613 VGND.n1561 VGND.n1560 585
R614 VGND.n1560 VGND.n97 585
R615 VGND.n1561 VGND.n104 585
R616 VGND.n104 VGND.n97 585
R617 VGND.n1562 VGND.n103 585
R618 VGND.n1562 VGND.n1561 585
R619 VGND.n1562 VGND.n97 585
R620 VGND.n859 VGND.n626 281.14
R621 VGND.n939 VGND.n938 281.14
R622 VGND.n857 VGND.n626 281.14
R623 VGND.n938 VGND.n862 281.14
R624 VGND.n855 VGND.n626 281.14
R625 VGND.n938 VGND.n863 281.14
R626 VGND.n853 VGND.n626 281.14
R627 VGND.n938 VGND.n864 281.14
R628 VGND.n851 VGND.n626 281.14
R629 VGND.n938 VGND.n865 281.14
R630 VGND.n849 VGND.n626 281.14
R631 VGND.n938 VGND.n866 281.14
R632 VGND.n847 VGND.n626 281.14
R633 VGND.n938 VGND.n867 281.14
R634 VGND.n845 VGND.n626 281.14
R635 VGND.n938 VGND.n868 281.14
R636 VGND.n843 VGND.n626 281.14
R637 VGND.n938 VGND.n869 281.14
R638 VGND.n841 VGND.n626 281.14
R639 VGND.n938 VGND.n870 281.14
R640 VGND.n839 VGND.n626 281.14
R641 VGND.n938 VGND.n871 281.14
R642 VGND.n837 VGND.n626 281.14
R643 VGND.n938 VGND.n872 281.14
R644 VGND.n835 VGND.n626 281.14
R645 VGND.n938 VGND.n873 281.14
R646 VGND.n833 VGND.n626 281.14
R647 VGND.n938 VGND.n874 281.14
R648 VGND.n831 VGND.n626 281.14
R649 VGND.n938 VGND.n875 281.14
R650 VGND.n829 VGND.n626 281.14
R651 VGND.n938 VGND.n876 281.14
R652 VGND.n827 VGND.n626 281.14
R653 VGND.n938 VGND.n877 281.14
R654 VGND.n825 VGND.n626 281.14
R655 VGND.n938 VGND.n878 281.14
R656 VGND.n823 VGND.n626 281.14
R657 VGND.n938 VGND.n879 281.14
R658 VGND.n821 VGND.n626 281.14
R659 VGND.n938 VGND.n880 281.14
R660 VGND.n819 VGND.n626 281.14
R661 VGND.n938 VGND.n881 281.14
R662 VGND.n817 VGND.n626 281.14
R663 VGND.n938 VGND.n882 281.14
R664 VGND.n815 VGND.n626 281.14
R665 VGND.n938 VGND.n883 281.14
R666 VGND.n813 VGND.n626 281.14
R667 VGND.n938 VGND.n884 281.14
R668 VGND.n811 VGND.n626 281.14
R669 VGND.n938 VGND.n885 281.14
R670 VGND.n809 VGND.n626 281.14
R671 VGND.n938 VGND.n886 281.14
R672 VGND.n807 VGND.n626 281.14
R673 VGND.n938 VGND.n887 281.14
R674 VGND.n805 VGND.n626 281.14
R675 VGND.n938 VGND.n888 281.14
R676 VGND.n803 VGND.n626 281.14
R677 VGND.n938 VGND.n889 281.14
R678 VGND.n801 VGND.n626 281.14
R679 VGND.n938 VGND.n890 281.14
R680 VGND.n799 VGND.n626 281.14
R681 VGND.n938 VGND.n891 281.14
R682 VGND.n797 VGND.n626 281.14
R683 VGND.n938 VGND.n892 281.14
R684 VGND.n795 VGND.n626 281.14
R685 VGND.n938 VGND.n893 281.14
R686 VGND.n793 VGND.n626 281.14
R687 VGND.n938 VGND.n894 281.14
R688 VGND.n791 VGND.n626 281.14
R689 VGND.n938 VGND.n895 281.14
R690 VGND.n789 VGND.n626 281.14
R691 VGND.n938 VGND.n896 281.14
R692 VGND.n787 VGND.n626 281.14
R693 VGND.n938 VGND.n897 281.14
R694 VGND.n785 VGND.n626 281.14
R695 VGND.n938 VGND.n898 281.14
R696 VGND.n783 VGND.n626 281.14
R697 VGND.n938 VGND.n899 281.14
R698 VGND.n781 VGND.n626 281.14
R699 VGND.n938 VGND.n900 281.14
R700 VGND.n779 VGND.n626 281.14
R701 VGND.n938 VGND.n901 281.14
R702 VGND.n777 VGND.n626 281.14
R703 VGND.n938 VGND.n902 281.14
R704 VGND.n775 VGND.n626 281.14
R705 VGND.n938 VGND.n903 281.14
R706 VGND.n773 VGND.n626 281.14
R707 VGND.n938 VGND.n904 281.14
R708 VGND.n771 VGND.n626 281.14
R709 VGND.n938 VGND.n905 281.14
R710 VGND.n769 VGND.n626 281.14
R711 VGND.n938 VGND.n906 281.14
R712 VGND.n767 VGND.n626 281.14
R713 VGND.n938 VGND.n907 281.14
R714 VGND.n765 VGND.n626 281.14
R715 VGND.n938 VGND.n908 281.14
R716 VGND.n763 VGND.n626 281.14
R717 VGND.n938 VGND.n909 281.14
R718 VGND.n761 VGND.n626 281.14
R719 VGND.n938 VGND.n910 281.14
R720 VGND.n759 VGND.n626 281.14
R721 VGND.n938 VGND.n911 281.14
R722 VGND.n757 VGND.n626 281.14
R723 VGND.n938 VGND.n912 281.14
R724 VGND.n755 VGND.n626 281.14
R725 VGND.n938 VGND.n913 281.14
R726 VGND.n753 VGND.n626 281.14
R727 VGND.n938 VGND.n914 281.14
R728 VGND.n751 VGND.n626 281.14
R729 VGND.n938 VGND.n915 281.14
R730 VGND.n749 VGND.n626 281.14
R731 VGND.n938 VGND.n916 281.14
R732 VGND.n747 VGND.n626 281.14
R733 VGND.n938 VGND.n917 281.14
R734 VGND.n745 VGND.n626 281.14
R735 VGND.n938 VGND.n918 281.14
R736 VGND.n743 VGND.n626 281.14
R737 VGND.n938 VGND.n919 281.14
R738 VGND.n741 VGND.n626 281.14
R739 VGND.n938 VGND.n920 281.14
R740 VGND.n739 VGND.n626 281.14
R741 VGND.n938 VGND.n921 281.14
R742 VGND.n737 VGND.n626 281.14
R743 VGND.n938 VGND.n922 281.14
R744 VGND.n735 VGND.n626 281.14
R745 VGND.n938 VGND.n923 281.14
R746 VGND.n733 VGND.n626 281.14
R747 VGND.n938 VGND.n924 281.14
R748 VGND.n731 VGND.n626 281.14
R749 VGND.n938 VGND.n925 281.14
R750 VGND.n729 VGND.n626 281.14
R751 VGND.n938 VGND.n926 281.14
R752 VGND.n727 VGND.n626 281.14
R753 VGND.n938 VGND.n927 281.14
R754 VGND.n725 VGND.n626 281.14
R755 VGND.n938 VGND.n928 281.14
R756 VGND.n723 VGND.n626 281.14
R757 VGND.n938 VGND.n929 281.14
R758 VGND.n721 VGND.n626 281.14
R759 VGND.n938 VGND.n930 281.14
R760 VGND.n719 VGND.n626 281.14
R761 VGND.n938 VGND.n931 281.14
R762 VGND.n717 VGND.n626 281.14
R763 VGND.n938 VGND.n932 281.14
R764 VGND.n715 VGND.n626 281.14
R765 VGND.n938 VGND.n933 281.14
R766 VGND.n713 VGND.n626 281.14
R767 VGND.n938 VGND.n934 281.14
R768 VGND.n711 VGND.n626 281.14
R769 VGND.n938 VGND.n935 281.14
R770 VGND.n709 VGND.n626 281.14
R771 VGND.n938 VGND.n936 281.14
R772 VGND.n938 VGND.n631 281.14
R773 VGND.n183 VGND.n96 281.14
R774 VGND.n182 VGND.n103 281.14
R775 VGND.n186 VGND.n96 281.14
R776 VGND.n185 VGND.n103 281.14
R777 VGND.n189 VGND.n96 281.14
R778 VGND.n188 VGND.n103 281.14
R779 VGND.n192 VGND.n96 281.14
R780 VGND.n191 VGND.n103 281.14
R781 VGND.n195 VGND.n96 281.14
R782 VGND.n194 VGND.n103 281.14
R783 VGND.n198 VGND.n96 281.14
R784 VGND.n197 VGND.n103 281.14
R785 VGND.n201 VGND.n96 281.14
R786 VGND.n200 VGND.n103 281.14
R787 VGND.n204 VGND.n96 281.14
R788 VGND.n203 VGND.n103 281.14
R789 VGND.n207 VGND.n96 281.14
R790 VGND.n206 VGND.n103 281.14
R791 VGND.n210 VGND.n96 281.14
R792 VGND.n209 VGND.n103 281.14
R793 VGND.n213 VGND.n96 281.14
R794 VGND.n212 VGND.n103 281.14
R795 VGND.n216 VGND.n96 281.14
R796 VGND.n215 VGND.n103 281.14
R797 VGND.n219 VGND.n96 281.14
R798 VGND.n218 VGND.n103 281.14
R799 VGND.n222 VGND.n96 281.14
R800 VGND.n221 VGND.n103 281.14
R801 VGND.n225 VGND.n96 281.14
R802 VGND.n224 VGND.n103 281.14
R803 VGND.n228 VGND.n96 281.14
R804 VGND.n227 VGND.n103 281.14
R805 VGND.n231 VGND.n96 281.14
R806 VGND.n230 VGND.n103 281.14
R807 VGND.n234 VGND.n96 281.14
R808 VGND.n233 VGND.n103 281.14
R809 VGND.n237 VGND.n96 281.14
R810 VGND.n236 VGND.n103 281.14
R811 VGND.n240 VGND.n96 281.14
R812 VGND.n239 VGND.n103 281.14
R813 VGND.n243 VGND.n96 281.14
R814 VGND.n242 VGND.n103 281.14
R815 VGND.n246 VGND.n96 281.14
R816 VGND.n245 VGND.n103 281.14
R817 VGND.n249 VGND.n96 281.14
R818 VGND.n248 VGND.n103 281.14
R819 VGND.n252 VGND.n96 281.14
R820 VGND.n251 VGND.n103 281.14
R821 VGND.n255 VGND.n96 281.14
R822 VGND.n254 VGND.n103 281.14
R823 VGND.n258 VGND.n96 281.14
R824 VGND.n257 VGND.n103 281.14
R825 VGND.n261 VGND.n96 281.14
R826 VGND.n260 VGND.n103 281.14
R827 VGND.n264 VGND.n96 281.14
R828 VGND.n263 VGND.n103 281.14
R829 VGND.n267 VGND.n96 281.14
R830 VGND.n266 VGND.n103 281.14
R831 VGND.n270 VGND.n96 281.14
R832 VGND.n269 VGND.n103 281.14
R833 VGND.n273 VGND.n96 281.14
R834 VGND.n272 VGND.n103 281.14
R835 VGND.n276 VGND.n96 281.14
R836 VGND.n275 VGND.n103 281.14
R837 VGND.n279 VGND.n96 281.14
R838 VGND.n278 VGND.n103 281.14
R839 VGND.n282 VGND.n96 281.14
R840 VGND.n281 VGND.n103 281.14
R841 VGND.n285 VGND.n96 281.14
R842 VGND.n284 VGND.n103 281.14
R843 VGND.n288 VGND.n96 281.14
R844 VGND.n287 VGND.n103 281.14
R845 VGND.n291 VGND.n96 281.14
R846 VGND.n290 VGND.n103 281.14
R847 VGND.n294 VGND.n96 281.14
R848 VGND.n293 VGND.n103 281.14
R849 VGND.n297 VGND.n96 281.14
R850 VGND.n296 VGND.n103 281.14
R851 VGND.n300 VGND.n96 281.14
R852 VGND.n299 VGND.n103 281.14
R853 VGND.n303 VGND.n96 281.14
R854 VGND.n302 VGND.n103 281.14
R855 VGND.n306 VGND.n96 281.14
R856 VGND.n305 VGND.n103 281.14
R857 VGND.n309 VGND.n96 281.14
R858 VGND.n308 VGND.n103 281.14
R859 VGND.n312 VGND.n96 281.14
R860 VGND.n311 VGND.n103 281.14
R861 VGND.n315 VGND.n96 281.14
R862 VGND.n314 VGND.n103 281.14
R863 VGND.n318 VGND.n96 281.14
R864 VGND.n317 VGND.n103 281.14
R865 VGND.n321 VGND.n96 281.14
R866 VGND.n320 VGND.n103 281.14
R867 VGND.n324 VGND.n96 281.14
R868 VGND.n323 VGND.n103 281.14
R869 VGND.n327 VGND.n96 281.14
R870 VGND.n326 VGND.n103 281.14
R871 VGND.n330 VGND.n96 281.14
R872 VGND.n329 VGND.n103 281.14
R873 VGND.n333 VGND.n96 281.14
R874 VGND.n332 VGND.n103 281.14
R875 VGND.n336 VGND.n96 281.14
R876 VGND.n335 VGND.n103 281.14
R877 VGND.n339 VGND.n96 281.14
R878 VGND.n338 VGND.n103 281.14
R879 VGND.n342 VGND.n96 281.14
R880 VGND.n341 VGND.n103 281.14
R881 VGND.n345 VGND.n96 281.14
R882 VGND.n344 VGND.n103 281.14
R883 VGND.n348 VGND.n96 281.14
R884 VGND.n347 VGND.n103 281.14
R885 VGND.n351 VGND.n96 281.14
R886 VGND.n350 VGND.n103 281.14
R887 VGND.n354 VGND.n96 281.14
R888 VGND.n353 VGND.n103 281.14
R889 VGND.n357 VGND.n96 281.14
R890 VGND.n356 VGND.n103 281.14
R891 VGND.n360 VGND.n96 281.14
R892 VGND.n359 VGND.n103 281.14
R893 VGND.n363 VGND.n96 281.14
R894 VGND.n362 VGND.n103 281.14
R895 VGND.n366 VGND.n96 281.14
R896 VGND.n365 VGND.n103 281.14
R897 VGND.n369 VGND.n96 281.14
R898 VGND.n368 VGND.n103 281.14
R899 VGND.n372 VGND.n96 281.14
R900 VGND.n371 VGND.n103 281.14
R901 VGND.n375 VGND.n96 281.14
R902 VGND.n374 VGND.n103 281.14
R903 VGND.n378 VGND.n96 281.14
R904 VGND.n377 VGND.n103 281.14
R905 VGND.n381 VGND.n96 281.14
R906 VGND.n380 VGND.n103 281.14
R907 VGND.n384 VGND.n96 281.14
R908 VGND.n383 VGND.n103 281.14
R909 VGND.n387 VGND.n96 281.14
R910 VGND.n386 VGND.n103 281.14
R911 VGND.n390 VGND.n96 281.14
R912 VGND.n389 VGND.n103 281.14
R913 VGND.n393 VGND.n96 281.14
R914 VGND.n392 VGND.n103 281.14
R915 VGND.n396 VGND.n96 281.14
R916 VGND.n395 VGND.n103 281.14
R917 VGND.n399 VGND.n96 281.14
R918 VGND.n398 VGND.n103 281.14
R919 VGND.n402 VGND.n96 281.14
R920 VGND.n401 VGND.n103 281.14
R921 VGND.n405 VGND.n96 281.14
R922 VGND.n404 VGND.n103 281.14
R923 VGND.n408 VGND.n96 281.14
R924 VGND.n407 VGND.n103 281.14
R925 VGND.n102 VGND.n96 281.14
R926 VGND.n941 VGND.n629 166.845
R927 VGND.n1567 VGND.n1566 166.845
R928 VGND.n1566 VGND.n1565 166.843